resultados/_temp_alt7_1p10/LineSummary.csv
line,maxCurrentA,normAmps,maxLoadingPct,meanLoadingPct,overloadHours
rbt_1607347,93.10252182633506,124.95,74.51182218994403,25.723383958450757,0
sbt_7584,93.10253193838183,163.8,56.83915258753469,19.622326533270915,0
sbt_22840,93.10252730737199,163.8,56.83914976030036,19.62232645720849,0
rbt_630758,31.20971469920401,76.65,40.717175080500986,17.4275943771918,0
rbt_637576,24.785233780323864,61.95,40.0084483943888,14.609189884943765,0
rbt_632607,44.94093928994425,124.95,35.96713828727031,16.929972232351002,0
rbt_606147,25.45326194508286,76.65,33.207125825287484,12.355955987594305,0
rbt_1130761,27.905822488341784,90.3,30.903457905140403,14.54334817096865,0
rbt_637918,17.773384768511118,61.95,28.689886631979206,11.276551505445525,0
rbt_605836,23.688744035592347,90.3,26.23338209921633,12.35516561844367,0
rbt_637360,16.1930836757648,61.95,26.13895670018531,12.280598581817225,0
rbt_1607350,22.028493877031835,90.3,24.394788346657627,8.76489089359358,0
rbt_626476,13.994246749078178,61.95,22.589583130069695,10.628262343708156,0
rbt_606126,13.572724714896951,61.95,21.909160153183134,7.790399114186626,0
rbt_1633671,13.228828630175023,61.95,21.354041372356775,10.055606176207625,0
rbt_3405844,18.963430838388533,90.3,21.00047711892418,7.238999452907408,0
rbt_606143,14.882300389120125,76.65,19.415917011246083,6.864782680851548,0
rbt_1627323,13.773329737593782,76.65,17.969119031433504,8.453933307665485,0
sbt_34378,22.612279207102905,128.1,17.65205246456121,8.661195456741329,0
sbt_34379,22.541685207019295,128.1,17.596943955518576,8.536857504892918,0
rbt_635862,10.786134430258182,61.95,17.411032171522486,5.973416516677566,0
rbt_3435739,13.32476387529427,76.65,17.383905903841185,8.20045351119246,0
rbt_637397,10.74136111032782,61.95,17.338758854443615,8.149348553512356,0
rbt_605816,10.229635269841353,61.95,16.51272844203608,6.213113613519902,0
sbt_24791,25.453283254731467,163.8,15.539244966258526,5.7819544008197274,0
sbt_3174,25.453274375545444,163.8,15.53923954551004,5.7819560187468335,0
rbt_609688,11.214037285217435,76.65,14.630185629768341,5.327166400926843,0
smt_19119,23.64834950073864,163.8,14.437331807532747,8.793035881945286,0
smt_17184,23.64720542466205,163.8,14.43663334838953,8.792569548823504,0
rbt_1638954,7.865133733680298,61.95,12.695938230315251,5.9677173044347605,0
rbt_1607265,11.051392579263032,90.3,12.23852998810967,5.759609254975568,0
rbt_606139,9.338618480128112,76.65,12.183455290447634,4.361448223232784,0
rbt_623004,7.275935334674276,61.95,11.744851226270017,4.57539021122077,0
sbt_11363,18.112664533675037,163.8,11.057792755601364,4.121863983055548,0
sbt_9361,23.68874409614682,216.3,10.95180032184319,5.1579817335847205,0
rbt_606121,6.383076439648348,61.95,10.303593930021545,4.8412130324891,0
rbt_1605991,6.104811633131587,61.95,9.854417486895215,4.632957594844386,0
rbt_1607280,6.055947265860372,61.95,9.775540380726992,4.594127750735791,0
sbt_34393,12.18513416648687,128.1,9.512204657679057,6.253624213929309,0
rbt_635543,5.8194486066727675,61.95,9.393783061618672,3.7309984939164953,0
rbt_606114,8.280144002683217,90.3,9.169594687356831,4.31010151046739,0
rbt_627337,8.060324920082467,90.3,8.926162702195423,4.197408797044819,0
rbt_1621994,7.9065497608293125,90.3,8.75586905961164,4.114710974606743,0
rbt_626678,7.72585527076872,90.3,8.555764419455947,4.023627898344763,0
rbt_606150,5.257380346120157,61.95,8.486489662825111,3.986832735458652,0
rbt_1607272,7.568304620986689,90.3,8.381289724237751,3.943546703248961,0
rbt_623007,5.170836204222705,61.95,8.346789675904285,3.9217569170934996,0
sbt_22748,17.90251623054174,216.3,8.276706532844075,3.8944483996920662,0
sbt_7427,17.902508020106026,216.3,8.276702736988453,3.894444478361384,0
sbt_34383,10.59052587802137,128.1,8.267389444200916,4.870072720979224,0
sbt_34392,10.590522737738736,128.1,8.267386992770286,5.183041673789593,0
sbt_34384,10.576854410635208,128.1,8.256716948192981,3.9882968160312484,0
smt_34713,23.63453041861303,286.65,8.245082999690574,5.0213933558267785,0
smt_34700,23.634381801947303,286.65,8.245031153653342,5.02135919553728,0
smt_34701,23.634029758535608,286.65,8.244908340671763,5.021278296770536,0
smt_34715,23.633728712194856,286.65,8.244803318400438,5.021209139508583,0
smt_34702,23.633430537629934,286.65,8.244699297969627,5.021140662495065,0
smt_34703,23.633022106496224,286.65,8.244556813708783,5.0210468975681515,0
smt_34704,23.632531108743393,286.65,8.244385525464292,5.020934228173256,0
smt_34716,23.63222423464777,286.65,8.24427847013702,5.020863837752083,0
smt_34705,23.631915697265715,286.65,8.244170834559817,5.020793087510221,0
smt_34717,23.631548049570817,286.65,8.244042577907141,5.020708811295359,0
smt_34706,23.63117581041306,286.65,8.243912719488247,5.020623514099654,0
smt_34707,23.630737531063698,286.65,8.24375982245376,5.0205231247513575,0
smt_34708,23.63032918587383,286.65,8.243617368175068,5.020429631523895,0
smt_34709,23.62980222065919,286.65,8.243433532412068,5.020309035912242,0
smt_34718,23.62950866428062,286.65,8.243331123070163,5.020241883392665,0
smt_34710,23.629221590105022,286.65,8.243230975093327,5.0201762327666435,0
smt_34719,23.628921342584555,286.65,8.243126231496444,5.020107589777209,0
smt_34711,23.62862206576756,286.65,8.243021826536738,5.020039189247606,0
smt_34720,23.628280837661407,286.65,8.242902786555524,5.0199612256593555,0
smt_34712,23.627966039790273,286.65,8.242792966959803,5.019889324524359,0
smt_34721,23.627740155476396,286.65,8.242714165524646,5.019837746217865,0
smt_34714,23.627730865735273,286.65,8.24271092472886,5.019835625283632,0
rbt_1630759,6.258866640276596,76.65,8.165514207797255,3.84089116156056,0
rbt_606122,5.0542875380958465,61.95,8.158656235828646,3.8347908722030373,0
rbt_1229546,7.336845539877437,90.3,8.124967375279555,3.821003687366499,0
rbt_1638606,5.0048604787335425,61.95,8.078870829271255,3.7986307450276002,0
rbt_605905,7.160420357136911,90.3,7.92959065020699,3.7276005306127455,0
rbt_1607283,7.089212071818218,90.3,7.850733191382302,3.693191640960553,0
smt_31417,25.250918750340638,327.6,7.707850656392136,4.717286290034802,0
smt_31416,25.250872299822177,327.6,7.707836477357197,4.717276944894102,0
smt_31411,25.250854598460798,327.6,7.7078310740112315,4.717273383777898,0
smt_31412,25.25083456538241,327.6,7.707824958907938,4.717269353814154,0
smt_31413,25.2507157855759,327.6,7.707788701335744,4.7172454601033715,0
smt_31414,25.250626524710146,327.6,7.7077614544292254,4.717227506110755,0
smt_31415,25.250400347330345,327.6,7.707692413715001,4.7171820189094005,0
smt_4387,25.25002840162893,327.6,7.707578877176108,4.717107235911311,0
smt_4863,25.249599242883228,327.6,7.70744787633798,4.717020980747523,0
smt_4693,25.249239206683775,327.6,7.707337975178197,4.716948643908451,0
smt_4591,25.24891018163265,327.6,7.7072375401809055,4.716882558158111,0
smt_17964,25.248890033952915,327.6,7.707231390095516,4.708533748341642,0
smt_4627,25.24856101153577,327.6,7.707130955902248,4.716812447560055,0
smt_6826,25.248442332068883,327.6,7.707094728958755,4.708442947812268,0
smt_4527,25.248281726327313,327.6,7.7070457040071165,4.716756385138876,0
smt_7012,25.24792554265329,327.6,7.706936978831895,4.708338180388918,0
smt_23134,25.247827708793583,327.6,7.706907115016355,4.716665277779868,0
smt_22791,25.247462452590504,327.6,7.7067956204488715,4.7082443403697525,0
smt_18545,25.24742063880988,327.6,7.706782856779573,4.716583623003829,0
smt_10381,25.246989367246098,327.6,7.7066512110030825,4.716497146231751,0
smt_7020,25.246921869823414,327.6,7.706630607394203,4.708134846386843,0
smt_18806,25.246771500398747,327.6,7.706584707081424,4.7164534731768555,0
smt_24122,25.24670059207054,327.6,7.706563062292594,4.716439261773305,0
smt_6842,25.246505916223786,327.6,7.706503637430948,4.708050631781873,0
smt_6830,25.24587490433311,327.6,7.706311020858703,4.707922935906506,0
smt_29390,25.245178722510133,327.6,7.706098511144728,4.7076952834636865,0
smt_31407,25.245115975984884,327.6,7.706079357748743,4.707769449384386,0
smt_31408,25.244651201715364,327.6,7.705937485261099,4.715815385473384,0
smt_17776,25.24456816221269,327.6,7.7059121374275605,4.707570584839176,0
smt_10747,25.243946862694926,327.6,7.705722485560111,4.707443762038696,0
smt_18202,25.243407330398135,327.6,7.705557793161823,4.707333686625497,0
smt_17794,25.242906673481897,327.6,7.705404967485316,4.7072315896160974,0
smt_29420,25.24259732511499,327.6,7.705310538801889,4.70716852806794,0
smt_22739,25.24241654207159,327.6,7.705255354722708,4.707131682936591,0
smt_17795,25.241820459789807,327.6,7.705073400424238,4.70701023809288,0
smt_29389,25.24115546854612,327.6,7.704870411644114,4.706874829651593,0
smt_19163,25.240582467075463,327.6,7.704695502770287,4.706758216666329,0
smt_17961,25.2402172709927,327.6,7.7045840265545475,4.706683925634061,0
smt_29388,25.23979608531668,327.6,7.704455459498376,4.706598274698951,0
smt_17962,25.239278431961406,327.6,7.704297445653665,4.706493050313684,0
rbt_1107340,6.787705537237562,90.3,7.516838911669504,3.5372452652046142,0
rbt_605822,6.787051731247176,90.3,7.516114874027881,3.5370577600427104,0
rbt_1626486,6.785181446526024,90.3,7.514043683860491,3.5309845796097066,0
rbt_1607287,6.780562555532887,90.3,7.508928632926786,3.531953344464997,0
rbt_606132,4.534482154792726,61.95,7.319583784976151,3.4391067863545755,0
rbt_623433,6.566507730624643,90.3,7.271880100359517,3.421416725896519,0
smt_6447,23.706118633420008,327.6,7.236299949151406,4.4091335105766065,0
smt_6627,23.705739331365532,327.6,7.236184167083495,4.409058682386905,0
smt_24630,23.705134632650687,327.6,7.235999582616204,4.40893944759261,0
smt_24629,23.70476151748519,327.6,7.235885689098042,4.40886591294713,0
smt_24628,23.704264069312625,327.6,7.235733842891522,4.408767917595587,0
smt_24627,23.70389474954939,327.6,7.235621107921059,4.408695194965051,0
smt_6957,23.703549263930782,327.6,7.235515648330519,4.40862719015401,0
smt_6431,23.70311930452287,327.6,7.235384403090007,4.408542590925852,0
smt_24626,23.70276149529725,327.6,7.235275181714666,4.408472216127879,0
smt_12228,23.702372461447137,327.6,7.235156429013168,4.408395728995397,0
rbt_626698,6.521761140647871,90.3,7.2223268445712865,3.3944884749350326,0
smt_6510,23.65633772136416,327.6,7.221104310550721,4.397681362206311,0
smt_19223,23.65581288517703,327.6,7.220944104144393,4.397576990663231,0
smt_22843,23.655366159637577,327.6,7.2208077410371105,4.397488196096677,0
smt_6737,23.654976518148484,327.6,7.220688802853627,4.397410780622519,0
smt_24665,23.654468778479977,327.6,7.220533815164827,4.3973099465994805,0
smt_24635,23.653944240374557,327.6,7.220373699748032,4.397205830803023,0
smt_24637,23.653401487680235,327.6,7.220208024322415,4.397098157614752,0
smt_24636,23.652870727190376,327.6,7.220046009520871,4.39699292057038,0
smt_19174,23.652387488271966,327.6,7.219898500693518,4.3968971550086495,0
smt_6686,23.651817417070223,327.6,7.2197244862851715,4.396784241709055,0
smt_19173,23.65085879105522,327.6,7.2194318654014715,4.3965945146918,0
smt_19172,23.650534863840715,327.6,7.219332986520365,4.39653044609321,0
smt_6544,23.650181403627904,327.6,7.21922509268251,4.3964605602463145,0
smt_6535,23.649658963781533,327.6,7.21906561775993,4.396357309759831,0
smt_24634,23.6485169168333,327.6,7.218717007580372,4.396131796195564,0
smt_24633,23.648109393401445,327.6,7.218592610928401,4.396051388273338,0
smt_24511,23.647836751496403,327.6,7.218509386903664,4.396413408256918,0
smt_24632,23.64767101297917,327.6,7.218458795170686,4.395964929179096,0
smt_1873,23.64723955564344,327.6,7.218327092687253,4.395879873114584,0
smt_29446,23.64719163534673,327.6,7.218312465002054,4.396281965479391,0
smt_24631,23.64685295038674,327.6,7.218209081314633,4.3958036907427696,0
smt_32671,23.646766175929812,327.6,7.218182593385168,4.3961953237071265,0
smt_6527,23.646451303519783,327.6,7.218086478485891,4.395724576100848,0
smt_6389,23.646296537901343,327.6,7.21803923623362,4.3960997275040405,0
smt_24510,23.646282114685267,327.6,7.218034833542511,4.396096792228271,0
smt_24509,23.645782803720696,327.6,7.217882418718161,4.395995206270929,0
smt_24508,23.64534512935478,327.6,7.217748818484365,4.395906201662998,0
smt_6426,23.644950576163833,327.6,7.21762838100239,4.3958259991156785,0
smt_6420,23.644548315233333,327.6,7.217505590730565,4.395744262052369,0
smt_6140,23.644113636768267,327.6,7.2173729049964175,4.395655974489564,0
smt_6653,23.643699029008584,327.6,7.2172463458512155,4.39557179896945,0
smt_6650,23.643290505524433,327.6,7.217121643932976,4.395488892493903,0
smt_29445,23.64288977242912,327.6,7.216999320033309,4.395407599649528,0
smt_24507,23.642477528809913,327.6,7.216873482542708,4.39532400551039,0
smt_24506,23.64206669085665,327.6,7.216748074132067,4.395240730418098,0
smt_24505,23.641642733171988,327.6,7.216618660919409,4.39515483162216,0
smt_24459,23.64127896506126,327.6,7.21650762059257,4.395081156781022,0
smt_24458,23.640840807140346,327.6,7.216373872753463,4.394992450927163,0
smt_24457,23.64039991034259,327.6,7.216239288871364,4.394903229597544,0
smt_24456,23.63999449181095,327.6,7.216115534740826,4.394821222281656,0
smt_24455,23.639578292568807,327.6,7.215988489795118,4.394737068690639,0
smt_24454,23.639179000652092,327.6,7.2158666058156555,4.394656366451896,0
smt_19165,23.638738118477495,327.6,7.215732026397282,4.394567295526752,0
smt_17113,23.63827714221852,327.6,7.215591313253516,4.394474206846085,0
smt_6993,23.63726579722328,327.6,7.215282599885005,4.39427012760091,0
smt_24453,23.636652141837892,327.6,7.215095281391297,4.394146398449588,0
smt_24452,23.636177177124523,327.6,7.214950298267558,4.394050684966321,0
smt_24451,23.635760904048766,327.6,7.214823230784116,4.393966836127167,0
smt_24450,23.63536768470961,327.6,7.214703200460809,4.393887662986978,0
smt_6394,23.634937500078525,327.6,7.214571886470855,4.393801082631879,0
smt_24668,23.627720137658876,327.6,7.212368784389156,4.392354028390765,0
smt_29393,23.62755171035615,327.6,7.212317371903588,4.392320384052791,0
smt_19218,23.626136150116444,327.6,7.211885271708315,4.392037842722753,0
smt_6502,23.62564356146441,327.6,7.21173490887192,4.391939617945412,0
smt_24667,23.62538614103116,327.6,7.211656331206092,4.391888306320412,0
smt_6683,23.62469401368297,327.6,7.211445059121785,4.391750410536254,0
smt_19220,23.624132413411164,327.6,7.211273630467388,4.39163859095446,0
smt_22844,23.62374184150468,327.6,7.2111544082737105,4.391560861976661,0
smt_6687,23.623312673264905,327.6,7.211023404537517,4.391475487129232,0
smt_24666,23.62299092607527,327.6,7.210925191109667,4.391411505894841,0
rbt_1607252,5.495122358794064,76.65,7.169109404819392,3.371418704554682,0
rbt_637356,4.294965666562196,61.95,6.932955071125417,3.258953805104081,0
rbt_631391,6.1818272957057845,90.3,6.845877403882375,5.184672943291756,0
rbt_605855,5.097106952931278,76.65,6.649845992082554,3.1278831957552224,0
rbt_1607255,5.953459234444249,90.3,6.5929781112339425,3.0991946473768923,0
rbt_636933,4.956410146414382,76.65,6.466288514565403,3.042582044180062,0
rbt_605910,3.8934928580905965,61.95,6.28489565470637,2.952361785360752,0
rbt_627343,5.63735210460191,90.3,6.242914844520388,2.9335183504706475,0
sbt_28279,13.228840818827083,216.3,6.115968940742988,2.880003686680691,0
sbt_20214,13.228833377857017,216.3,6.115965500627377,2.8800039746138144,0
rbt_1607304,3.787533032357246,61.95,6.113854773780865,2.8713420783140955,0
rbt_1607305,5.35079653464295,90.3,5.925577557744131,2.785843934350168,0
rbt_1607285,3.6348993025734115,61.95,5.867472643379195,2.7550139046002653,0
rbt_606103,4.416528403416822,76.65,5.761941817895397,2.7084793866647687,0
rbt_3405846,4.402082055767536,76.65,5.743094658535599,2.7006243140802133,0
rbt_606109,3.50627310572409,61.95,5.659843592774964,2.658973866982683,0
rbt_605825,5.10917098269341,90.3,5.657996658575206,2.660521053210589,0
smt_29422,23.649235107120095,419.0,5.644208856114581,3.4372773882045884,0
sbt_4580,9.189983076471789,163.8,5.610490278676306,2.639911872656397,0
rbt_1631852,5.057619045579214,90.3,5.600907027219507,2.6326146989261434,0
rbt_605993,5.02833093680032,90.3,5.568472798228483,2.616964305763386,0
rbt_621999,4.9916110264469316,90.3,5.527808445677665,2.5983267256662583,0
rbt_630753,4.9883823733608414,90.3,5.524232971606691,2.597872741543195,0
sbt_6049,9.014339444023365,163.8,5.503259733835998,2.5896886108228223,0
rbt_607384,3.302331829671643,61.95,5.330640564441716,2.5045898590621154,0
rbt_1607278,4.0792303532535055,76.65,5.321892176455975,2.5006513042889984,0
smt_6110,17.41499612999594,327.6,5.315932884614146,3.0479902885083483,0
rbt_1628760,4.790663373809269,90.3,5.305275054052347,2.492740336732227,0
rbt_3433894,4.7633877082046165,90.3,5.275069444301901,2.4800566571420384,0
rbt_1607357,4.01849163860617,76.65,5.242650539603614,2.464026882290557,0
smt_24515,16.884453007801223,327.6,5.153984434615758,3.0135948605808855,0
smt_6552,16.884065304699078,327.6,5.153866088125481,3.0135045892338916,0
smt_6549,16.883553044047087,327.6,5.153709720405093,3.0133853754571156,0
smt_23959,16.883105737780717,327.6,5.153573180030743,3.0132813330067028,0
smt_22744,16.88256912614034,327.6,5.153409379163717,3.013156586135882,0
smt_19175,16.8821228324686,327.6,5.153273147884187,3.0130528919271438,0
smt_19177,16.881614664676643,327.6,5.1531180295105745,3.0129348838880383,0
smt_19176,16.881080597284505,327.6,5.152955005276101,3.012810932941555,0
smt_19164,16.88084806109831,327.6,5.152884023534282,3.0127569868924353,0
smt_32311,16.880447936272905,327.6,5.152761885309189,3.012664194510675,0
smt_39119,16.87996800753228,327.6,5.152615386914615,3.0125529487412703,0
smt_32312,16.879945473958198,327.6,5.152608508534248,3.012547727472708,0
smt_32310,16.879927100791235,327.6,5.152602900119424,3.012543469642011,0
smt_32309,16.87948300418362,327.6,5.152467339494389,3.012440587817346,0
smt_32314,16.879279966233206,327.6,5.1524053620980474,3.012393568297089,0
smt_32313,16.87926455114574,327.6,5.152400656637894,3.012389998234493,0
smt_6802,16.879087760369455,327.6,5.152346691199467,3.0668801014034455,0
smt_24514,16.878533206261146,327.6,5.152177413388627,3.06675245769525,0
smt_24513,16.877957293016944,327.6,5.1520016156950375,3.0666199783925627,0
smt_19166,16.877505390555744,327.6,5.151863672330813,3.066516083344228,0
smt_6414,16.877064272961235,327.6,5.151729021050437,3.0664147166518827,0
smt_18852,16.876617830133434,327.6,5.151592744240975,3.0663121755058937,0
smt_6403,16.876122473470122,327.6,5.151441536468291,3.066198457550975,0
smt_1832,16.875691852902253,327.6,5.151310089408502,3.0660996504587046,0
smt_1831,16.87527233069675,327.6,5.151182030127212,3.0660034342629956,0
smt_1829,16.87444869907217,327.6,5.150930616322396,3.0658146641618393,0
smt_1828,16.87385249775202,327.6,5.150748625687429,3.065678124729137,0
smt_6350,16.78714386408093,327.6,5.124280788791493,2.9976697509191776,0
smt_24517,16.784963775163668,327.6,5.123615315984025,2.997387718865715,0
smt_24520,16.784295652649387,327.6,5.123411371382596,2.9972320510974266,0
smt_19116,16.78398017364624,327.6,5.123315071320586,2.997158586783017,0
rbt_605806,4.3895772528100725,90.3,4.861104377419792,2.284451410347572,0
rbt_622714,4.32312461566582,90.3,4.787513417127154,2.2512240133566266,0
sbt_25907,10.229659698181374,216.3,4.729384973731564,1.7794836687554054,0
sbt_21361,10.229652982830913,216.3,4.729381869085027,1.7794837699068415,0
sbt_20771,10.229647620382911,216.3,4.729379389913505,1.7794859211756304,0
rbt_1607258,3.613988792428617,76.65,4.714923408256512,2.217285657326904,0
smt_6066,7.703266749968035,163.8,4.702849053704538,2.699397502445508,0
smt_6062,7.7028596850040945,163.8,4.702600540295539,2.6993231007723213,0
smt_6719,7.702410100943414,163.8,4.702326068952023,2.699241817392045,0
smt_6176,7.701903140148335,163.8,4.702016569077127,2.6991464912112684,0
smt_6144,7.7014295441017016,163.8,4.701727438401527,2.6990605050727177,0
smt_6227,7.700927355327109,163.8,4.701420851848051,2.6989677818277795,0
smt_19063,7.7004420367669075,163.8,4.701124564570761,2.6988792016854823,0
smt_6092,7.699960907448249,163.8,4.700830834827991,2.6987891502784915,0
smt_29474,7.699544000668044,163.8,4.700576312984153,2.6987162866211185,0
smt_29473,7.699077209411915,163.8,4.700291336637311,2.6986326245165224,0
smt_19115,7.698610129489578,163.8,4.70000618405957,2.6985446827271655,0
smt_24512,7.698241793059948,163.8,4.6997813144444125,2.698462659081237,0
rbt_627328,4.219974921918874,90.3,4.673283412977713,2.199516179926677,0
smt_37840,7.599103784706699,163.8,4.63925749982094,2.673024929745528,0
smt_6474,7.5987713961157,163.8,4.639054576383211,2.6729639937220013,0
smt_19061,7.598359582722616,163.8,4.638803164055321,2.6728846034685976,0
smt_29476,7.597957186341907,163.8,4.638557500819235,2.672811318420685,0
smt_6594,7.597465748313206,163.8,4.638257477602689,2.6727181106259112,0
smt_29475,7.596970138591614,163.8,4.637954907565088,2.672621626404752,0
smt_19011,7.5965428573605145,163.8,4.637694052112646,2.6725438798796257,0
smt_19014,7.596052975270485,163.8,4.63739497879761,2.672452037150572,0
sbt_5830,7.581756013463918,163.8,4.6286666748863965,2.177868377468464,0
rbt_621168,3.5115037978554655,76.65,4.581218262042356,2.1533192277172604,0
rbt_605815,4.120659349278035,90.3,4.5632993901196395,2.1459910012852546,0
rbt_1107330,4.120164037715039,90.3,4.562750872331161,2.1473737015198204,0
rbt_621171,2.8191666337567223,61.95,4.550712887420052,2.1379804623798426,0
rbt_3422597,4.10217389853441,90.3,4.542828237579634,2.136560212075769,0
rbt_606127,2.7983200613934907,61.95,4.517062245994334,2.1222071494726955,0
rbt_635966,2.7828006427170298,61.95,4.49201072270707,2.11067003431086,0
rbt_1124041,4.047595174035741,90.3,4.482386682210123,2.1081410826156435,0
rbt_605921,3.3352812946442394,76.65,4.351312843632406,2.045415212191274,0
sbt_14007,7.089211787216631,163.8,4.327968124063878,2.0359900823877264,0
rbt_627336,3.871373780741952,90.3,4.287235637587987,2.014448929839545,0
rbt_1627321,3.856674350379414,90.3,4.270957198648299,2.0076107435217847,0
rbt_1607355,3.840713611053863,90.3,4.25328196129996,1.9991745214104408,0
rbt_605902,2.634377279958482,61.95,4.252424987826443,1.9982983456042873,0
sbt_35173,5.350796136847179,128.1,4.177046164595769,1.9637913049699716,0
rbt_1607358,3.198040515242236,76.65,4.172264207752428,1.9612997211249505,0
sbt_21952,9.01433858391705,216.3,4.167516682347226,1.9611229275463176,0
sbt_20840,6.787051708074271,163.8,4.143499211278553,1.9499164008192695,0
sbt_6273,6.780562250351736,163.8,4.139537393377128,1.9471022910164753,0
rbt_3405838,3.684073940030443,90.3,4.079816101916327,1.9198542795409843,0
rbt_622273,2.344762319038064,57.75,4.060194491840804,1.9112060076265547,0
rbt_1107341,2.5118858867046496,61.95,4.054698767884825,1.9074866016263317,0
smt_6536,11.580573423299173,286.65,4.0399697970693085,2.388797712421505,0
smt_6703,11.579990822497264,286.65,4.039766552414884,2.388664709660769,0
smt_6514,11.57941946682976,286.65,4.039567230709841,2.388534442109235,0
smt_6984,11.579332248300698,286.65,4.039536803872562,2.3885145712706066,0
smt_5854,11.578444794175354,286.65,4.039227208852383,2.3883126046036054,0
smt_5855,11.57777981967405,286.65,4.038995227515803,2.3881615339804916,0
smt_5657,11.577234745246981,286.65,4.038805074218379,2.3880378716598902,0
rbt_638617,2.501933339887168,61.95,4.0386333170091495,1.8998412863296874,0
smt_21743,11.576660050830284,286.65,4.0386045877656676,2.3879076545553177,0
smt_22741,11.576071145821027,286.65,4.038399143841279,2.387774393624377,0
smt_6098,11.575603242131612,286.65,4.038235912133826,2.3876686408554115,0
smt_19120,11.575060596648981,286.65,4.038046606191865,2.3875461366785777,0
smt_22740,11.574523466184226,286.65,4.037859224205207,2.3874250270910475,0
smt_22738,11.560086509344073,286.65,4.032822783653959,2.3818882126692595,0
smt_6754,11.559597182998186,286.65,4.032652078492303,2.381776655692521,0
smt_6567,11.559099722380102,286.65,4.032478535628852,2.3816633695706497,0
smt_6746,11.558605171427631,286.65,4.032306007824047,2.381550871489569,0
smt_6812,11.55811911854452,286.65,4.032136444634404,2.381440428509789,0
rbt_605828,3.6396877222943376,90.3,4.030661929451094,1.8968674747018583,0
rbt_1607292,3.570071179191791,90.3,3.9535671973331024,1.8589106857108284,0
sbt_4118,11.214044800052987,286.65,3.912103540922026,1.4244808720030468,0
rbt_1635060,2.422678329475977,61.95,3.9106994826085177,1.8389505761466982,0
rbt_1626490,3.531321160852386,90.3,3.910654663180937,2.961904609391318,0
sbt_37156,6.383076226334891,163.8,3.896871933049384,1.8309714641473203,0
rbt_605867,3.511403830007572,90.3,3.888597818391553,1.8285492781213064,0
sbt_4615,6.297308699417957,163.8,3.8445108055054673,1.809947341841687,0
sbt_3373,6.297307498993314,163.8,3.8445100726454906,1.8099465464391462,0
sbt_20793,6.297306396851631,163.8,3.8445093997873205,1.8099458223284124,0
sbt_4010,6.297304687802393,163.8,3.8445083564117173,1.8099447105733635,0
sbt_28804,6.297303135335905,163.8,3.8445074086299784,1.8099437117569128,0
rbt_605812,3.4291324116467345,90.3,3.7974888279587318,1.7872378597788174,0
rbt_632613,3.4259756455679335,90.3,3.7939929629766707,1.7845431992314111,0
rbt_622713,3.4086028965402893,90.3,3.7747540382505975,1.7737872601624805,0
rbt_606120,2.327438037690912,61.95,3.756962127023264,1.7647244926212224,0
sbt_26269,8.060324553935262,216.3,3.726456104454582,1.7523161196469486,0
rbt_1132019,3.3189985560348276,90.3,3.6755244252877386,1.7282126983403192,0
rbt_605863,3.3029116466136808,90.3,3.657709464688462,1.7203167644765835,0
rbt_634166,2.775622994766103,76.65,3.6211650290490582,1.7016539633921397,0
rbt_1138614,2.2284482198229876,61.95,3.597172267672296,1.6913725071136527,0
smt_7052,5.8583792970139905,163.8,3.5765441373711786,1.9365869972166092,0
rbt_605803,3.20770178447368,90.3,3.552272186571074,1.6698872936049984,0
rbt_605834,3.184813580648513,90.3,3.5269253384811883,1.6604407897622284,0
smt_29484,5.761485011277147,163.8,3.517390116774815,1.7426508970111094,0
smt_22951,5.761471537496544,163.8,3.5173818910235313,1.7426426163183093,0
rbt_605904,2.1787811008115385,61.95,3.516999355627988,1.6513818245254066,0
smt_19381,5.76013666223153,163.8,3.5165669488592974,1.7418233687146267,0
smt_18804,5.7594417118715215,163.8,3.5161426812402445,1.7413977747482265,0
smt_19380,5.7586453131651565,163.8,3.515656479343807,1.7409108274906673,0
smt_5349,5.758007233197285,163.8,3.515266931133873,1.7405212813360507,0
smt_18803,5.757359139540008,163.8,3.514871269560444,1.7401261696611627,0
smt_13454,5.756697374862422,163.8,3.51446726182077,1.7397232951862496,0
smt_19377,5.755910727078605,163.8,3.513987012868501,1.739245147821529,0
smt_37837,7.5996626980784034,216.3,3.51348252338345,2.0243148762227015,0
smt_29411,5.754921754361125,163.8,3.5133832444207114,1.7386451894791441,0
smt_37841,7.599315085799483,216.3,3.5133218149789562,2.0242598558752323,0
smt_8954,5.754314122826082,163.8,3.5130122849976075,1.738277219165399,0
smt_5584,5.753605804556118,163.8,3.5125798562613664,1.7378489001626685,0
rbt_605810,2.6874763163785644,76.65,3.506166100950508,1.647913352582007,0
rbt_605864,3.157969219116799,90.3,3.497197363363011,1.6448413646662194,0
rbt_609682,2.662229810707042,76.65,3.4732287158604587,1.633974876220729,0
rbt_622703,2.136218514558921,61.95,3.4482946159143197,2.6121640452692825,0
rbt_605835,3.112495960830615,90.3,3.4468393807648012,1.6227204609098111,0
sbt_14006,5.634930334462355,163.8,3.4401284093176767,1.61774862332626,0
sbt_27416,7.336845412143845,216.3,3.3919766121793087,1.5951762358231498,0
sbt_15213,7.3368453614347935,216.3,3.391976588735457,1.595176224872609,0
rbt_606128,2.585903202099345,76.65,3.3736506224388054,1.585464286615781,0
sbt_37537,7.27596646723062,216.3,3.363831006579112,1.3104284657462026,0
sbt_37545,7.275957821328395,216.3,3.36382700939824,1.3104290557929656,0
sbt_37546,7.275941100739987,216.3,3.363819279121584,1.3104279696898546,0
sbt_37539,7.268160761923419,216.3,3.3602222662614047,1.8286499395796172,0
sbt_37538,7.268155232513315,216.3,3.360219709899822,1.8286504634373502,0
rbt_1607257,3.018941558228106,90.3,3.343235391171767,1.5715379312095175,0
rbt_607385,3.0129962090954403,90.3,3.33665139434711,1.5693760301228574,0
rbt_3405845,3.0032825146490567,90.3,3.325894257640152,1.5656122061470745,0
rbt_633056,2.999321868121177,90.3,3.3215081596026326,1.56165229334786,0
rbt_606141,2.9960286968172065,90.3,3.3178612367853897,1.5618902470457954,0
rbt_623015,2.9880512234547707,90.3,3.3090268255313076,2.506373113554423,0
sbt_34389,4.219973669163728,128.1,3.2942807721808967,2.534929748936468,0
smt_25186,5.383638583795524,163.8,3.2867146421218094,1.7953285499114706,0
smt_37855,7.048771933139868,216.3,3.2587942363106186,1.7504081542702898,0
smt_37854,7.048411119185096,216.3,3.258627424496115,1.7503938658909297,0
smt_37853,7.04807909580472,216.3,3.2584739231644564,1.75038485296703,0
smt_37852,7.04773830296259,216.3,3.2583163675277804,1.750372665725803,0
smt_37851,7.047417322975946,216.3,3.258167971787307,1.750364937439705,0
smt_37850,7.047083464643705,216.3,3.258013622119142,1.7503555037295728,0
smt_37849,7.046750976691938,216.3,3.257859906006444,1.750347858087386,0
smt_37848,7.046406620113652,216.3,3.2577007027802365,1.750338676031156,0
smt_37847,7.0460635667590115,216.3,3.257542102061494,1.750318299615624,0
smt_37846,7.045822456965471,216.3,3.2574306319766393,1.7503223730578794,0
smt_37845,7.045493359519037,216.3,3.2572784833652504,1.7503169308853714,0
smt_38000,7.045142581257207,216.3,3.2571163112608446,1.7503025250168989,0
smt_38002,7.04484551811059,216.3,3.2569789727741973,1.7502620227452663,0
smt_38001,7.0448378148747945,216.3,3.256975411407672,1.7502624617946847,0
smt_37843,7.044826120430345,216.3,3.2569700048221657,1.7502984445197782,0
smt_37842,7.044502606118854,216.3,3.2568204374104734,1.7502730934659863,0
smt_37838,7.044335413704447,216.3,3.256743140871219,1.7502813770650494,0
rbt_605982,2.9273252675284898,90.3,3.2417777049041967,1.5252201809821704,0
rbt_1606000,2.9260440655265443,90.3,3.2403588765520976,1.5234535027119638,0
rbt_1629639,2.913219844894155,90.3,3.2261570818318437,1.5157529348683845,0
sbt_3952,5.267321928826297,163.8,3.2157032532517076,1.513345398871568,0
sbt_4120,5.267320511982625,163.8,3.2157023882677804,1.513344480746408,0
sbt_20855,5.267319130635036,163.8,3.215701544954234,1.5133435926084096,0
sbt_20854,5.267317818578703,163.8,3.215700743943042,1.5133427551514973,0
rbt_635963,1.9909529269522142,61.95,3.2138061774854143,1.5095662072035603,0
rbt_626481,2.863543966462532,90.3,3.1711450348422288,1.490598904988673,0
rbt_1607306,2.41475583028745,76.65,3.1503663800227657,1.4812984592905896,0
rbt_605901,2.835641863417448,90.3,3.140245695921869,1.4755520970763005,0
rbt_605820,2.403054924705191,76.65,3.13510101070475,1.4745674990818838,0
rbt_3405847,2.829526505278755,90.3,3.1334734277727074,1.4749169216933284,0
sbt_34000,6.7359717978422005,216.3,3.1141802116699955,1.46378890673654,0
rbt_1607289,2.386991014571679,76.65,3.1141435284692482,1.4634340769423344,0
sbt_20828,5.054286275284977,163.8,3.0856448567063355,1.4503367893895118,0
rbt_1609690,2.7447196516480195,90.3,3.0395566463433217,1.4281994614440519,0
smt_15243,4.9553022243952,163.8,3.0252150332083025,1.7736539794284665,0
smt_26472,4.954866600730089,163.8,3.0249490846948035,1.7735902377708335,0
smt_14780,4.954372971722805,163.8,3.0246477238844958,1.773514600949733,0
smt_14754,4.953880518694168,163.8,3.0243470810098705,1.7734398745197122,0
smt_14729,4.953390640246131,163.8,3.024048009918273,1.7781763576861997,0
smt_21229,4.952893460654657,163.8,3.0237444814741496,1.778101867929103,0
smt_26474,4.95242506387987,163.8,3.0234585249571855,1.7780305603192332,0
smt_22453,4.952012026381394,163.8,3.023206365312206,1.7779769973148214,0
smt_14544,4.951516004451061,163.8,3.022903543620916,1.7779068476368438,0
smt_14113,4.951020727127763,163.8,3.022601176512676,1.7778409987297161,0
smt_22508,4.950477497004096,163.8,3.0222695341905346,1.7777617047646574,0
smt_14452,4.949998700269635,163.8,3.0219772284918403,1.7776911327844767,0
smt_6512,8.662338091384985,286.65,3.021921538944701,1.8037888609811248,0
smt_6425,8.661951026868497,286.65,3.0217865085883475,1.8037123846736673,0
smt_30311,4.949597002537041,163.8,3.0217319917808547,1.7776437287638507,0
smt_6930,8.661358103055093,286.65,3.0215796626740254,1.8035943552212252,0
smt_26478,4.949101734344653,163.8,3.0214296302470407,1.7775716068204066,0
sbt_34382,3.864455415341037,128.1,3.0167489581116604,1.417677850130662,0
rbt_1625170,2.7223927703770685,90.3,3.0148314179148046,1.4166856434231205,0
smt_37856,6.505286861556937,216.3,3.0075297556897533,1.6450655254390554,0
rbt_605821,3.8492660437550166,128.1,3.0048915251795605,1.4118515316612994,0
sbt_35105,3.84071324806897,128.1,2.9982148696869397,1.4092538782918567,0
rbt_605988,2.687154750891819,90.3,2.975808140522502,1.4005103586965104,0
smt_22686,8.474410944176325,286.65,2.9563617457444016,1.850548829199939,0
smt_6239,8.47395586611837,286.65,2.9562029883545686,1.8504554044988097,0
smt_23961,8.473511678560246,286.65,2.9560480301971905,1.8503644030338908,0
smt_29407,8.473059847081775,286.65,2.9558904054009334,1.8502718754896896,0
smt_6278,8.472655179468793,286.65,2.9557492340724902,1.8501893752659964,0
smt_6630,8.472183377485795,286.65,2.955584642416116,1.8500931853893248,0
smt_19070,8.471709344494146,286.65,2.955419272455659,1.8499967074603312,0
smt_6639,8.471235608301747,286.65,2.9552540060358443,1.8499003785633688,0
smt_19117,8.470793416254079,286.65,2.9550997440272386,1.84981061416846,0
smt_21514,8.466260136295318,286.65,2.953518275351585,1.8443851964931017,0
smt_5615,8.465802045354717,286.65,2.95335846689507,1.8442892960833295,0
smt_18742,8.465445301132092,286.65,2.9532340140003814,1.8442148751324874,0
smt_6270,8.464885034365851,286.65,2.953038560741619,1.8440979329363991,0
smt_5967,8.464449283426795,286.65,2.952886545762008,1.8440072676627486,0
smt_5772,8.463935266642572,286.65,2.952707227155965,1.8439004291976049,0
smt_6158,8.463426910180734,286.65,2.952529883195791,1.8437948959413888,0
smt_6263,8.462986666233826,286.65,2.9523763007967303,1.8437038402860058,0
smt_6384,8.462440710338031,286.65,2.952185839992336,1.8435909691977879,0
smt_22684,8.46190652872203,286.65,2.951999486733658,1.8434806262024284,0
smt_22685,8.461470691578842,286.65,2.9518474416810894,1.843390894329942,0
smt_29447,8.461013759892175,286.65,2.951688037638994,1.8432969968079291,0
smt_19065,8.46052426984898,286.65,2.9515172753703056,1.843196652457758,0
smt_24385,8.459971197017472,286.65,2.95132433176957,1.843083362720031,0
smt_29448,8.458290780911302,286.65,2.950738106021735,1.8307072267217699,0
smt_6824,8.457844183617583,286.65,2.950582307210041,1.830611306663614,0
smt_6855,8.457365323669663,286.65,2.9504152533297274,1.8305086214744677,0
smt_19062,8.456806118477353,286.65,2.950220170408984,1.8303889229087904,0
smt_7054,8.456361645344534,286.65,2.9500651126267345,1.8302939488791088,0
smt_6446,8.455907521842972,286.65,2.949906688241051,1.8301970649735442,0
smt_39006,8.455442253804353,286.65,2.9497443760001234,1.8300979632208207,0
smt_39008,8.455021839860096,286.65,2.949597711446048,1.8300085545619773,0
smt_39007,8.455004119767334,286.65,2.9495915296589343,1.8300047888689503,0
smt_6122,8.454600661134387,286.65,2.949450780092234,1.8299191161884414,0
smt_18741,8.454091531213043,286.65,2.9492731663049168,1.8298111886640227,0
smt_5938,8.453619845158343,286.65,2.949108615090997,1.829711422313765,0
smt_5946,8.453075180718859,286.65,2.9489186048208125,1.829596415303273,0
smt_856,4.830007789110911,163.8,2.948722703974915,1.7367033968836834,0
smt_15622,4.829463630822813,163.8,2.948390495007822,1.7366081019004385,0
smt_23196,4.829161248209147,163.8,2.948205890237574,1.7365663182246065,0
smt_15581,4.828837111850418,163.8,2.9480080047926847,1.736522173721441,0
smt_15568,4.828486286121249,163.8,2.947793825470848,1.7364720333089803,0
rbt_605804,1.821792584279806,61.95,2.940746705859251,1.3820303527676279,0
sbt_6048,4.762513844539008,163.8,2.9075176096086737,1.3682761843454088,0
rbt_605829,2.619203780529378,90.3,2.900557896488791,1.363609611982544,0
sbt_15045,6.258863954779983,216.3,2.893603307803968,1.3610912186711055,0
smt_23147,4.720722765930046,163.8,2.882004130604423,1.7088575495329021,0
smt_16038,4.72041241573327,163.8,2.8818146616198224,1.708856802081244,0
smt_37925,6.219638831280803,216.3,2.875468715340177,1.5803969093314165,0
smt_37924,6.219477038344352,216.3,2.8753939150921646,1.5804189861171467,0
smt_37923,6.219130841574782,216.3,2.8752338611071573,1.5804158558016166,0
smt_37864,6.218789633738598,216.3,2.8750761136100773,1.5803906453507244,0
smt_37863,6.218628004514536,216.3,2.875001389049716,1.5803896391830143,0
smt_37862,6.218466560683224,216.3,2.8749267502002884,1.5804022850159045,0
smt_37861,6.218199926637447,216.3,2.874803479721427,1.5804082487576423,0
smt_37860,6.217877187312015,216.3,2.8746542706019484,1.5804092275520754,0
smt_37859,6.217536920705182,216.3,2.874496958254823,1.5803967803751806,0
smt_37858,6.217283431519944,216.3,2.874379764919068,1.5804088781633319,0
smt_37831,6.216932983865564,216.3,2.874217745661379,1.5803840251618142,0
rbt_1607316,2.5901632887310293,90.3,2.868397883423067,2.1735641888860764,0
rbt_1107342,1.77673277670843,61.95,2.8680109389966586,1.3485129537785696,0
smt_37898,6.201102305808355,216.3,2.866898893115282,1.5724277410016914,0
smt_37897,6.200715128160433,216.3,2.866719892815734,1.572405577274856,0
smt_37896,6.200378769228758,216.3,2.8665643870683115,1.572393317291976,0
smt_37895,6.200018031683436,216.3,2.8663976105794893,1.5723773191697186,0
smt_37894,6.199663114940785,216.3,2.86623352516911,1.5723605150659477,0
smt_37893,6.19932747456627,216.3,2.866078351625645,1.5723481840911768,0
smt_37892,6.198977169455671,216.3,2.8659163982689186,1.5723328038340636,0
smt_37891,6.198639339075436,216.3,2.865760212240146,1.5723216329217478,0
smt_37890,6.198280153465009,216.3,2.865594153243185,1.5723206975768258,0
smt_37889,6.19779490437294,216.3,2.8653698124701523,1.5722775665752258,0
smt_37888,6.197551086996473,216.3,2.865257090613256,1.5722674697181047,0
smt_37887,6.197317690320398,216.3,2.8651491864634293,1.5722722792949722,0
smt_37886,6.196956556339511,216.3,2.8649822266941793,1.5722580761602147,0
smt_37885,6.196608650832813,216.3,2.86482138272437,1.5722463882179734,0
smt_37884,6.196257245278566,216.3,2.8646589206096,1.572234626545935,0
smt_37883,6.195904714681705,216.3,2.864495938364172,1.5722241335020153,0
smt_37882,6.195541649416362,216.3,2.86432808572185,1.5722111885162011,0
smt_37881,6.195190657240739,216.3,2.8641658147206375,1.5722007859711462,0
smt_37880,6.194834487067421,216.3,2.864001149823126,1.5721876406309876,0
smt_37879,6.194499708843559,216.3,2.8638463748698837,1.57218149879138,0
smt_37878,6.194130639409799,216.3,2.8636757463753115,1.5721685065442108,0
smt_37877,6.1937835275473585,216.3,2.86351526932379,1.5721602588038432,0
smt_37876,6.193423742058242,216.3,2.863348932990403,1.572150751119947,0
smt_37875,6.193062364565144,216.3,2.8631818606403807,1.5721415046989102,0
smt_37874,6.192699605768081,216.3,2.8630141496847346,1.5721312175601907,0
smt_37873,6.192347323202034,216.3,2.862851282109123,1.5721198047906135,0
smt_37945,6.192020336956861,216.3,2.8627001095500972,1.572101411152752,0
smt_37944,6.191787265217115,216.3,2.8625923556251105,1.5721006275341038,0
smt_37943,6.1915143951701035,216.3,2.862466202112854,1.5721000967791123,0
smt_37942,6.191193513658904,216.3,2.8623178518996317,1.5720929131857464,0
smt_37941,6.190875378836261,216.3,2.8621707715377998,1.572086010240427,0
smt_37940,6.190560231045237,216.3,2.8620250721429668,1.5720805389099057,0
smt_37939,6.190238481642124,216.3,2.861876320685217,1.5720752195750898,0
smt_37938,6.189909982958859,216.3,2.8617244488945257,1.5720696980505615,0
smt_37937,6.189577695003609,216.3,2.861570825244387,1.572063252201704,0
smt_37936,6.189251146619741,216.3,2.861419855117772,1.572057871366152,0
smt_37935,6.188924487308157,216.3,2.8612688337069607,1.5720489798708053,0
smt_37934,6.188629045322025,216.3,2.8611322447166088,1.5720478768847483,0
smt_37933,6.188306218136961,216.3,2.8609829949777903,1.5720435334695324,0
smt_37932,6.187981606500007,216.3,2.8608329202496567,1.5720392244151526,0
smt_13546,4.667132133908188,163.8,2.849287017037966,1.6912259786376724,0
smt_21225,4.666841296459789,163.8,2.8491094605981617,1.6911925451846168,0
smt_13930,4.666318168318697,163.8,2.848790090548655,1.6911070985996155,0
smt_21226,4.6657989665569835,163.8,2.8484731175561557,1.6910157176164782,0
smt_13280,4.665401838704866,163.8,2.848230670759991,1.6909512613205449,0
smt_14437,4.665023857609916,163.8,2.8479999130707667,1.690891892435542,0
smt_13955,4.664642832356463,163.8,2.847767296920917,1.69083276283624,0
smt_26469,4.664256899531454,163.8,2.847531684695637,1.6907698050958375,0
smt_20808,4.663919680203675,163.8,2.8473258120901552,1.6907192685131722,0
smt_23095,4.663566632139594,163.8,2.8471102760314984,1.6906534823560861,0
smt_20807,4.6633886200481705,163.8,2.8470015995410076,1.6906404910528527,0
smt_13717,4.663013375206825,163.8,2.846772512336279,1.6905789785895307,0
smt_37986,6.121588058816355,216.3,2.830137798805527,1.5934150691979128,0
smt_37987,6.121338110115951,216.3,2.830022242309732,1.5933976337450142,0
smt_37993,6.1210188024377254,216.3,2.8298746197123092,1.5933602048881408,0
smt_37920,6.120859170155548,216.3,2.8298008183798187,1.5933607025008598,0
smt_37919,6.120471723373928,216.3,2.8296216936541505,1.5933273282084028,0
smt_37918,6.120091433625205,216.3,2.8294458777740195,1.5932942714767158,0
smt_37917,6.119727680411157,216.3,2.829277707078667,1.5932646461641884,0
smt_37916,6.119352932457185,216.3,2.8291044532858,1.5932333717594138,0
smt_37915,6.118983318484739,216.3,2.828933573039639,1.593196956401935,0
smt_37914,6.118708770609111,216.3,2.8288066438322286,1.5931802212050836,0
smt_37913,6.118349357786438,216.3,2.828640479790309,1.593152566174097,0
smt_37912,6.117971180634676,216.3,2.828465640607802,1.5931216792645186,0
smt_40685,6.117604954838057,216.3,2.8282963267859715,1.5930914394725146,0
smt_37911,6.11725809330978,216.3,2.828135965469154,1.5930424490090482,0
smt_37910,6.117237762016276,216.3,2.8281265658882457,1.593064609517371,0
smt_37909,6.116865544519441,216.3,2.8279544819784745,1.5930353904237304,0
smt_37908,6.116500702876105,216.3,2.8277858080795677,1.59300867960621,0
smt_40683,6.116119246287652,216.3,2.8276094527451,1.5929780117125754,0
smt_37906,6.1157647183324855,216.3,2.827445547079281,1.5929524137228874,0
smt_37905,6.115397401986087,216.3,2.827275729073549,1.592923478507549,0
smt_37904,6.115055481948168,216.3,2.8271176523107573,1.592898535454687,0
smt_37903,6.114712575912853,216.3,2.8269591197008106,1.592867771835877,0
smt_14797,4.629520246118415,163.8,2.8263249365802285,1.6736500399386758,0
smt_23041,4.6291379601731855,163.8,2.8260915507772806,1.6735871362667947,0
smt_14823,4.628750635611248,163.8,2.825855088895756,1.6735239728433084,0
smt_13752,4.6283577905245,163.8,2.825615256730464,1.6734357794285695,0
sbt_22669,6.104811128548946,216.3,2.822381474132661,1.326914792816835,0
rbt_3405987,1.747971012375773,61.95,2.8215835550859936,1.3283229176154852,0
smt_23225,4.616712975431811,163.8,2.8185060900072103,1.6669117364342076,0
smt_21220,4.616278835672536,163.8,2.8182410474191304,1.6668362593988195,0
smt_14845,4.615825395824404,163.8,2.8179642221150205,1.6667580237528739,0
smt_26425,4.6153560757000545,163.8,2.817677701892585,1.666676806561455,0
smt_20810,4.614889841104905,163.8,2.8173930653876096,1.6665927936985165,0
smt_26429,4.614497310212,163.8,2.817153425037851,1.6665261790212187,0
smt_26430,4.61410807943926,163.8,2.8169157994134677,1.6664607686970017,0
rbt_1132012,2.5375976445740984,90.3,2.8101856529059783,1.3207674997723557,0
smt_21222,4.601958210973814,163.8,2.8094982972978104,1.6606460646681338,0
smt_14301,4.601639741563852,163.8,2.809303871528603,1.6605903888576796,0
smt_23277,4.601237463593772,163.8,2.809058280582278,1.660514149913256,0
smt_26427,4.60085916010483,163.8,2.808827326071324,1.6604452178610611,0
smt_20812,4.6004605472743965,163.8,2.8085839726949913,1.6603721390633188,0
smt_15154,4.6000611465328465,163.8,2.808340138298441,1.6602982793631267,0
smt_14674,4.599684568053647,163.8,2.808110236906988,1.6602343966062776,0
rbt_1607268,2.1515612225529845,76.65,2.8069944195081336,1.3191184659782633,0
smt_37963,6.069170716696715,216.3,2.8059041686068955,1.5704876881329561,0
smt_37983,6.068695336159354,216.3,2.80568439027247,1.5704430660778226,0
smt_37984,6.068212241927392,216.3,2.805461045736196,1.5703973021646382,0
smt_37985,6.067737059519021,216.3,2.805241359000934,1.5703527488414242,0
smt_37947,6.067269679867532,216.3,2.8050252796428716,1.5703074777967598,0
smt_37948,6.06684221461333,216.3,2.804827653542917,1.570269295864685,0
sbt_35588,6.055943873402664,216.3,2.799789123163506,1.3157922777884001,0
rbt_605823,2.526024953158763,90.3,2.7973698263109226,1.3154960475018518,0
sbt_21281,4.5344807673086365,163.8,2.768303276745199,1.3006869679618516,0
rbt_605989,2.4681542778580927,90.3,2.733282699732107,1.284614038835475,0
rbt_1121173,2.4637587130689376,90.3,2.728414964638912,1.283356727188133,0
rbt_605807,2.45736307214209,90.3,2.721332305805194,1.2803254288021821,0
smt_29426,5.859101721377874,216.3,2.7087848919916198,1.4668673732457276,0
rbt_606130,2.0700112402069117,76.65,2.700601748476075,1.268970252904797,0
sbt_3491,4.416525158224961,163.8,2.696291305387644,1.2674274316473182,0
rbt_637399,1.6605252441696625,61.95,2.6804281584659604,1.259574876336138,0
sbt_21191,4.3811315095607,163.8,2.6746834612702686,1.257549517304925,0
sbt_26310,4.323124208011451,163.8,2.639269968260959,1.241059137134465,0
rbt_637705,2.369435791558657,90.3,2.6239599020583135,1.9876745339537651,0
rbt_1105833,2.3621436115354353,90.3,2.6158843981566284,1.2296430944742536,0
rbt_1607276,2.3526299441667993,90.3,2.6053487753785154,1.224216339743233,0
smt_37960,5.621584396517496,216.3,2.5989756803132202,1.4918771503735515,0
smt_37962,5.621174848200968,216.3,2.5987863375871325,1.491839176375792,0
smt_37981,5.602920359392668,216.3,2.5903469067927265,1.467754988127447,0
smt_37951,5.602537082852524,216.3,2.5901697100566454,1.4677160616905531,0
smt_37952,5.602153192619663,216.3,2.589992229597625,1.4676819791611606,0
smt_37953,5.601680690307931,216.3,2.589773781926921,1.4676339779765375,0
smt_37954,5.601225573573396,216.3,2.5895633719710567,1.469671459905925,0
smt_37955,5.600731765158891,216.3,2.5893350740447945,1.4696210035099426,0
smt_37956,5.600334774598824,216.3,2.5891515370313565,1.4695900058477604,0
smt_37957,5.599865286441925,216.3,2.5889344828672787,1.4695484254272781,0
smt_37958,5.5993985385397975,216.3,2.588718695580119,1.4695083272348672,0
smt_37959,5.598922958166921,216.3,2.5884988248575684,1.4694668536811912,0
rbt_1607319,2.3157438729636777,90.3,2.5645004130273286,1.8216656095456882,0
rbt_622709,2.312986411718191,90.3,2.561446746088805,1.20425200865255,0
rbt_1607328,2.3107153434550907,90.3,2.558931720326789,1.2032676424025068,0
rbt_607366,2.3096070470759553,90.3,2.557704371069718,1.201961277435801,0
smt_37979,5.48247658963437,216.3,2.534663240700125,1.455941283284326,0
smt_37980,5.4820694583481115,216.3,2.5344750154175273,1.4558820460962867,0
sbt_21953,4.120164332791558,163.8,2.5153628405320863,1.183808608845903,0
sbt_21849,4.120164266421515,163.8,2.5153628000131345,1.1838085895564714,0
sbt_21968,4.120164186007948,163.8,2.515362750920603,1.1838085662337108,0
smt_6074,7.177226100761476,286.65,2.5038290949804556,1.4816108047199503,0
smt_6082,7.176756506023045,286.65,2.503665273337884,1.4815299651876275,0
smt_6649,7.176293712151342,286.65,2.503503824228621,1.4814504631423482,0
smt_29408,7.175841227982702,286.65,2.503345971736509,1.4813731480012517,0
smt_6422,7.175387784836335,286.65,2.503187784697832,1.4812959171188014,0
smt_22683,7.174932014832374,286.65,2.5030287859174516,1.4812184462285016,0
smt_22793,7.156265092171116,286.65,2.496516690099814,1.467870766300624,0
smt_22790,7.1557903097501745,286.65,2.496351058695334,1.4677851008354317,0
smt_29449,7.155351557316136,286.65,2.4961979966217114,1.4684522037776293,0
smt_6370,7.155331982708625,286.65,2.496191167873234,1.4677028629529583,0
smt_6401,7.154894023631274,286.65,2.496038382568036,1.4683720938552611,0
smt_29409,7.15487127396505,286.65,2.4960304461765395,1.4676206849377278,0
smt_21348,7.154433898933234,286.65,2.4958778646200015,1.4682990641791227,0
smt_5650,7.154388608357747,286.65,2.495862064663439,1.467534441762778,0
smt_6094,7.153912105721894,286.65,2.4956958331491,1.4674480828505054,0
smt_29477,7.153546211317495,286.65,2.4955681881449485,1.4673842416801417,0
smt_29450,7.1530990515858806,286.65,2.495412193122582,1.467305670721654,0
smt_6231,7.152607435341069,286.65,2.4952406891125305,1.4672183904142757,0
smt_6340,7.15214673271439,286.65,2.495079969549761,1.4671374564020319,0
smt_25183,5.383006835914568,216.3,2.488676299544414,1.359277585314597,0
smt_25117,5.3823617777818935,216.3,2.488378075719784,1.358980126133785,0
smt_25116,5.381698718515187,216.3,2.4880715295955556,1.3586746750261154,0
smt_25115,5.381179961250077,216.3,2.4878316972954586,1.3584359184705044,0
smt_25114,5.380724690282943,216.3,2.4876212160346474,1.3582265402556022,0
smt_25113,5.380193408704917,216.3,2.487375593483549,1.357982393283055,0
smt_25112,5.379632227362761,216.3,2.487116147648063,1.3577247270141763,0
smt_25111,5.379264581689057,216.3,2.486946177387451,1.3575560459527176,0
smt_25110,5.378999041610848,216.3,2.4868234126726065,1.3574342732311955,0
smt_25109,5.378298693531762,216.3,2.486499627152918,1.357113349632189,0
smt_25108,5.377765504721612,216.3,2.486253122848642,1.3568692634917756,0
smt_25107,5.377047254875515,216.3,2.4859210609688,1.3565407872575497,0
smt_25106,5.376420176117698,216.3,2.485631149384049,1.3562543152656474,0
smt_25105,5.375778724405471,216.3,2.485334592882788,1.3559615763052335,0
smt_29427,5.375136989561543,216.3,2.4850379054838387,1.355669011920119,0
smt_6407,5.373866847557712,216.3,2.484450692352155,1.3550908589524597,0
smt_22794,5.373234708392195,216.3,2.484158441235411,1.354803564598771,0
smt_6477,5.372537092800737,216.3,2.4838359190017276,1.3544868594506327,0
smt_6641,5.3716308389854195,216.3,2.483416938966907,1.3540759818451358,0
smt_6157,5.370994540292741,216.3,2.483122764814027,1.3537878665240581,0
smt_6694,5.370275934920449,216.3,2.482790538567013,1.3534628512804259,0
smt_6581,7.088206783002617,286.65,2.4727740390729522,1.441436135650615,0
smt_6701,7.087743169799834,286.65,2.4726123041339036,1.4413574361486008,0
smt_21959,7.0872340502276945,286.65,2.472434693956984,1.4412693371741643,0
rbt_1633892,2.2322950073294936,90.3,2.472087494274079,1.161906226966518,0
sbt_21137,4.047592603749553,163.8,2.4710577556468576,1.1621787297524906,0
smt_19219,7.077982148657771,286.65,2.46920709878171,1.4306668021509372,0
smt_5952,7.077491876513291,286.65,2.469036063671129,1.4305749916563129,0
smt_29478,7.076980603346196,286.65,2.468857702196475,1.430478729335224,0
smt_22841,7.076530116818277,286.65,2.468700546596294,1.4303949932967497,0
smt_6660,7.076043500264654,286.65,2.4685307867659705,1.4303042117043816,0
rbt_1134165,2.226634422288019,90.3,2.465818850817297,1.160329864286351,0
rbt_1131858,2.2253554799777344,90.3,2.4644025248922863,1.1593235329780287,0
smt_22845,7.036592837804039,286.65,2.45476812761348,1.407306332402405,0
smt_18913,7.03602456556633,286.65,2.4545698815860213,1.4071989683311277,0
smt_5786,7.035473797199491,286.65,2.4543777419150503,1.4070947183621794,0
smt_29479,7.034999648354365,286.65,2.4542123315382405,1.4070058805445838,0
smt_19224,7.0345123670991665,286.65,2.4540423398217923,1.4069149356766648,0
rbt_1607353,2.206185759527151,90.3,2.443173598590422,1.1482750433617037,0
sbt_34390,3.9874415835742627,163.8,2.4343355211076085,1.8440691773197448,0
smt_37973,5.100920381513078,216.3,2.3582618499829304,1.381472330874466,0
smt_37991,5.100743956055377,216.3,2.3581802848152456,1.381458504911393,0
smt_37974,5.100495290132091,216.3,2.3580653213740597,1.3814432390679368,0
smt_37990,5.100071378334504,216.3,2.35786933811119,1.3813996031622384,0
smt_37975,5.099679352345834,216.3,2.357688096322623,1.3813630640041092,0
smt_37976,5.099255148497453,216.3,2.3574919780385817,1.3813217052249647,0
smt_37977,5.098836837382475,216.3,2.3572985840880603,1.3812805378260842,0
smt_37978,5.098438769887965,216.3,2.357114549185374,1.3812453893546912,0
smt_37970,5.055883264955759,216.3,2.33744025194441,1.3709745966179032,0
smt_37971,5.055326083981945,216.3,2.3371826555626187,1.3709048467633,0
smt_37972,5.0550380725086805,216.3,2.3370495018532966,1.370883744825445,0
smt_37989,5.054627000784232,216.3,2.336859454823963,1.3708787787950225,0
sbt_20633,3.8179926173441636,163.8,2.3308868237754354,1.538346812858545,0
sbt_4619,4.991610839102925,216.3,2.3077257693494797,1.084738253719305,0
smt_37964,4.9486937551766035,216.3,2.2878843066003713,1.3460704783964876,0
smt_37965,4.947239310937698,216.3,2.2872118867025883,1.3459279775366753,0
smt_37994,4.947049439557664,216.3,2.287124105204653,1.3458991973351058,0
smt_37995,4.947044948183485,216.3,2.2871220287487213,1.3458988990402585,0
smt_37996,4.947039536863066,216.3,2.2871195269824622,1.345917018327518,0
smt_37966,4.946710603334818,216.3,2.2869674541538685,1.3458903359316878,0
smt_37967,4.946308484914789,216.3,2.286781546423851,1.3458535434143473,0
smt_37968,4.9458961748100645,216.3,2.286590926865494,1.345815213839544,0
smt_37969,4.945491513745566,216.3,2.286403843617922,1.3457728637261461,0
rbt_606110,1.3873353727701019,61.95,2.2394437010009716,1.0521829136706002,0
rbt_1607284,2.0146731480263402,90.3,2.231088757504253,1.0488741428096484,0
rbt_1607302,1.3655484512690832,61.95,2.204275143291498,1.0356275772223864,0
rbt_607382,1.9696267325651737,90.3,2.181203469064423,1.0254795846678493,0
rbt_1607273,1.6707567858718515,76.65,2.1797218341446203,1.0242326376994895,0
sbt_26614,3.5313208840549337,162.75,2.1697824172380544,1.6433791592581255,0
sbt_26512,3.531319296474538,162.75,2.1697814417662293,1.6433781716899372,0
sbt_16246,3.5313187177399628,162.75,2.169781086168948,1.6433778122776543,0
sbt_5828,3.53131597771015,163.8,2.1558705602626067,1.632841651922008,0
sbt_3790,3.506272463869375,163.8,2.140581479773733,1.0056371575148488,0
rbt_1137150,1.3181816017585837,61.95,2.1278153377862528,1.0003080143671343,0
rbt_3405843,1.9159762768325945,90.3,2.1217898968245787,0.9977516744333556,0
rbt_1607288,1.610471169034319,76.65,2.1010713229410554,0.9875336721600938,0
rbt_605817,1.6020997327929138,76.65,2.09014968400902,0.9824621022979407,0
smt_13591,3.403690404215949,163.8,2.0779550697289064,1.0304809714163086,0
sbt_30492,2.585900837421763,124.95,2.0695484893331435,0.9725938148840075,0
rbt_607387,1.8592888640660232,90.3,2.0590131385005797,0.9676244444284382,0
sbt_21147,2.634341783126957,128.1,2.0564728986158918,0.9663621797340882,0
sbt_17923,2.6343363003959483,128.1,2.0564686185760723,0.966357860140305,0
rbt_626695,1.851224182621709,90.3,2.0500821512975738,1.5529908846789826,0
rbt_623432,1.8511400630364236,90.3,2.049988995610658,0.9638967407754163,0
sbt_3473,3.335278970512302,163.8,2.0361898476876075,0.9571479814626599,0
sbt_26790,4.39300853457173,216.3,2.0309794427053767,0.9549623471445053,0
smt_18691,5.7991025320867085,286.65,2.0230603635397553,1.063211540656799,0
smt_18692,5.798401366892263,286.65,2.0228157568087437,1.0630313699194258,0
smt_22142,5.797776409320909,286.65,2.022597735677973,1.062871221001675,0
smt_29410,5.79720929951584,286.65,2.0223998951738498,1.0627262556070831,0
smt_4821,5.796668302397094,286.65,2.0222111642759795,1.062588285053794,0
smt_18693,5.796009537726569,286.65,2.0219813492853898,1.0624207031465318,0
smt_5832,5.7954025386799115,286.65,2.0217695931204998,1.0622667021763759,0
smt_18694,5.794767000695213,286.65,2.021547880933268,1.0621058857834063,0
smt_5643,5.794206941584406,286.65,2.02135250011666,1.0619645300837706,0
smt_29483,5.79365036648796,286.65,2.0211583347245634,1.0618243902654179,0
smt_6014,5.793099172296033,286.65,2.0209660465013197,1.0616859368863563,0
smt_18695,5.792463385269993,286.65,2.020744247434151,1.0615266457266472,0
smt_29482,5.791898163192351,286.65,2.0205470654778828,1.0613854047437397,0
smt_6195,5.791305814257169,286.65,2.0203404201141355,1.0612377606660048,0
smt_6105,5.790711407546797,286.65,2.0201330568800966,1.0610899911904683,0
smt_19334,5.7523321692802005,286.65,2.0067441720844936,1.0414956524681076,0
smt_19331,5.751711905825657,286.65,2.0065277885315393,1.0413056878582256,0
smt_22269,5.751102767967019,286.65,2.0063152862260667,1.0411194515870286,0
sbt_34896,4.294965293517355,216.3,1.9856520080986384,0.933389506437087,0
sbt_34381,3.207701450632279,163.8,1.9583036939147,0.9205786843905224,0
smt_29480,5.532317553074791,286.65,1.9299904249345166,1.0632370777841773,0
smt_19271,5.531147672463914,286.65,1.9295823033190003,1.0629855626447904,0
smt_5537,5.53068321868498,286.65,1.929420275138664,1.06288615976746,0
rbt_605808,1.7360158398004135,90.3,1.922498161462252,0.9032833488588267,0
smt_19274,5.510148272238615,286.65,1.9222565052288907,1.0503121198085252,0
smt_4942,5.509602673162636,286.65,1.9220661689037628,1.0501935531327338,0
smt_18740,5.5090703097396,286.65,1.9218804499353217,1.050078204971872,0
smt_5191,5.508540401268144,286.65,1.9216955873951316,1.049963725382954,0
smt_5198,5.508015495656588,286.65,1.9215124701400972,1.0498506585511906,0
smt_5549,5.507436983285637,286.65,1.9213106517654412,1.0497264284621413,0
smt_19273,5.506845291733103,286.65,1.9211042357345554,1.0495997858551342,0
smt_5414,5.506348588026626,286.65,1.9209309569253885,1.0494938009239105,0
smt_5522,5.50579630578669,286.65,1.9207382891284461,1.0493763081868124,0
rbt_1607326,1.7328298487145164,90.3,1.9189699321312474,0.9022348595851155,0
smt_40861,5.479854648030596,286.65,1.9116883474727355,1.0333597696499328,0
smt_40860,5.479498227387267,286.65,1.9115640074611084,1.0332819655973353,0
smt_40859,5.479123545869651,286.65,1.9114332970066812,1.0332003410857542,0
smt_40858,5.478743662087349,286.65,1.9113007717032442,1.0331177570072496,0
smt_40375,3.1305595253015612,163.8,1.9112085014051043,0.9512846356627932,0
smt_40857,5.478277418247175,286.65,1.9111381190466337,1.0330166384983577,0
smt_40856,5.477807489184959,286.65,1.9109741807727052,1.0329149885475026,0
smt_40374,3.1300075200846065,163.8,1.910871501883154,0.9509568066511448,0
smt_40855,5.477348862446194,286.65,1.9108141853989864,1.0328160432846814,0
smt_40854,5.476915147601719,286.65,1.9106628807262236,1.0327227093288387,0
smt_40358,3.1294583866811156,163.8,1.9105362556050764,0.9506314270154793,0
smt_40853,5.476446886929946,286.65,1.9104995244828,1.032622200177999,0
smt_40852,5.475975864984315,286.65,1.9103352049483047,1.0325213702385174,0
smt_22899,5.475746672156096,286.65,1.9102552493131333,1.0252160422898922,0
smt_5757,5.475730189316962,286.65,1.9102494991512164,1.0254609126867118,0
smt_40357,3.128880239965744,163.8,1.9101832966823833,0.9502896624229978,0
smt_5956,5.4751857626320515,286.65,1.9100595718234963,1.0250768915987287,0
smt_6028,5.475146042773836,286.65,1.9100457152533878,1.025316921804082,0
smt_40356,3.1283933157593458,163.8,1.9098860291571096,0.950002468251308,0
smt_22898,5.474552688174019,286.65,1.9098387190559987,1.025171063825208,0
smt_16985,5.474070112543481,286.65,1.9096703689319663,1.025052730090924,0
smt_40355,3.1278372410066932,163.8,1.9095465451811313,0.9496752138340039,0
smt_6106,5.473514389953969,286.65,1.9094765009433003,1.024916786014785,0
smt_6021,5.472963925192893,286.65,1.9092844671874738,1.0247824732981543,0
smt_40354,3.1272722124127186,163.8,1.9092015948795595,0.949343487015727,0
smt_6212,5.472428703387157,286.65,1.9090977510508138,1.024652210203686,0
smt_6044,5.471872610164623,286.65,1.9089037537640412,1.0245172134060614,0
smt_40353,3.126700624127454,163.8,1.9088526398824506,0.949008731128028,0
smt_6029,5.471330438072108,286.65,1.9087146129677688,1.0243859366013068,0
smt_40352,3.12622345829819,163.8,1.908561329852375,0.948729911480926,0
smt_19276,5.470788694753514,286.65,1.9085256217524906,1.0242551003645994,0
smt_22896,5.470170170187215,286.65,1.9083098448237277,1.0241061334856352,0
smt_40351,3.125771269636274,163.8,1.9082852683982137,0.9484662240740539,0
smt_6693,5.46975272988865,286.65,1.9081642176482296,1.024005845306711,0
smt_41231,5.469735806465848,286.65,1.9081583137854,1.024001784284687,0
...